test/benchmarks/psat/Test04/Test04.m
% 3 Bus two Machine                                                             

Bus.con = [ ...
% Bus no.    Vb       V_0     Theta_0  Area No. Region No.
   1        138.00  1.02000  0.00000    1           1;
   2        138.00  1.0142  0.00000    1           1;
   3        138.00  1.0059  0.00000    1           1];

SW.con = [ ...
% Bus no.     Sn      Vn      V_0    Theta_0   Qmax     Qmin    Vmax   Vmin
   1        100.00  138.00  1.02000  0.00000  1.50000 -1.50000  1.1    0.9   1.50000 1];

PV.con = [ ...
   2 100.00   138.00  1.00000  1.0142  1.50000 -1.50000 1.1 0.9 1;
   3 100.00   138.00  1.00000  1.0059  1.50000 -1.50000 1.1 0.9 1];

Syn.con = [ 2 100 138.0 60 8 0 0 1.3125 0.1813 0.14 5.89 0.5 1.2578 0.25 0.18 0.6 0.023 6.02 0 0 0 1 1 0;
            3 100 138.0 60 8 0 0 1.3125 0.1813 0.14 5.89 0.5 1.2578 0.25 0.18 0.6 0.023 6.02 0 0 0 1 1 0];
        
Exc.con = [ 1 2 5 -5 20 0.2 0.063 0.35 0.01 0.314 0.001 0.0039 1.555;
            2 2 5 -5 20 0.2 0.063 0.35 0.01 0.314 0.001 0.0039 1.555];

PQ.con = [ ...
   1 100.00   138.00  1.50000  0.80000 1.1 0.9 1;
   2 100.00   138.00  1.70000  0.70000 1.1 0.9 1;
   3 100.00   138.00  0.50000  0.30000 1.1 0.9 1];

Line.con = [ ...
   1    3   100.00   138.00 60 0   0.0000  0.01000  0.12000  0.00000  1.00000  0.00000 0    0.000    0.000;
   1    2   100.00   138.00 60 0   0.0000  0.01000  0.12000  0.00000  1.00000  0.00000 0    0.000    0.000;
   2    3   100.00   138.00 60 0   0.0000  0.01000  0.12000  0.00000  1.00000  0.00000 0    0.000    0.000];

Areas.con = [1    1 100.00  0.00000  9.99990];

Varname.bus = {' Bus1'; ' Bus2'; ' Bus3'};

Breaker.con = [ 1  1  100  138  60  1  1  200;];